Version 4
SHEET 1 1548 680
WIRE 32 96 -16 96
WIRE 64 96 32 96
WIRE 176 96 128 96
WIRE 432 96 176 96
WIRE 656 96 528 96
WIRE 720 96 656 96
WIRE 816 96 784 96
WIRE 976 96 816 96
WIRE -16 128 -16 96
WIRE 656 160 656 96
WIRE 816 160 816 96
WIRE 976 160 976 96
WIRE 32 176 32 96
WIRE 176 208 176 160
WIRE 176 208 -16 208
WIRE 176 224 176 208
WIRE 32 304 32 240
WIRE 64 304 32 304
WIRE 176 304 176 288
WIRE 176 304 128 304
WIRE 352 304 176 304
WIRE 512 304 512 224
WIRE 512 304 352 304
WIRE 656 304 656 240
WIRE 656 304 512 304
WIRE 816 304 816 224
WIRE 816 304 656 304
WIRE 976 304 976 240
WIRE 976 304 816 304
FLAG 352 304 0
SYMBOL voltage -16 112 R0
WINDOW 3 24 96 Invisible 2
WINDOW 123 24 124 Left 2
WINDOW 39 0 0 Left 0
SYMATTR InstName V1
SYMATTR Value SINE(0 17 50 0 0 0 1000000)
SYMATTR Value2 AC 17 0
SYMBOL cap 160 96 R0
SYMATTR InstName C1
SYMATTR Value 10
SYMBOL diode 64 112 R270
WINDOW 0 32 32 VTop 2
WINDOW 3 0 32 VBottom 2
SYMATTR InstName D1
SYMBOL cap 160 224 R0
SYMATTR InstName C2
SYMATTR Value 10
SYMBOL diode 128 288 R90
WINDOW 0 0 32 VBottom 2
WINDOW 3 32 32 VTop 2
SYMATTR InstName D2
SYMBOL Misc\\jumper 96 208 R90
SYMATTR InstName X1
SYMBOL nmos 432 144 R270
SYMATTR InstName M1
SYMATTR Value IRF530
SYMBOL voltage 512 128 R0
WINDOW 3 24 96 Invisible 2
WINDOW 123 0 0 Left 0
WINDOW 39 0 0 Left 0
SYMATTR InstName V2
SYMATTR Value PULSE(0 5 0 0 0 1u 1u 1000000)
SYMBOL diode 784 80 R90
WINDOW 0 0 32 VBottom 2
WINDOW 3 32 32 VTop 2
SYMATTR InstName D3
SYMBOL cap 800 160 R0
SYMATTR InstName C3
SYMATTR Value 4700µ
SYMBOL res 960 144 R0
SYMATTR InstName R1
SYMATTR Value 10
SYMBOL ind 640 144 R0
SYMATTR InstName L1
SYMATTR Value 330m
TEXT -50 354 Left 2 !.tran 0 10 0
